<?xml version="1.0" encoding="UTF-8"?>

<!-- generated on субота, 07. март 2020. 15:28:07 CET by Eclipse SUMO netedit Version 1.5.0
<configuration xmlns:xsi="http://www.w3.org/2001/XMLSchema-instance" xsi:noNamespaceSchemaLocation="http://sumo.dlr.de/xsd/netconvertConfiguration.xsd">

    <output>
        <output-file value="/home/dunja/Desktop/TrafficLightSystem/cross.net.xml"/>
    </output>

    <processing>
        <offset.disable-normalization value="true"/>
    </processing>

    <junctions>
        <no-turnarounds value="true"/>
    </junctions>

    <netedit>
        <route-files value="/home/dunja/Desktop/TrafficLightSystem/cross.rou.xml"/>
    </netedit>

    <report>
        <aggregate-warnings value="5"/>
    </report>

</configuration>
-->

<net version="1.3" junctionCornerDetail="5" limitTurnSpeed="5.50" xmlns:xsi="http://www.w3.org/2001/XMLSchema-instance" xsi:noNamespaceSchemaLocation="http://sumo.dlr.de/xsd/net_file.xsd">
    <location netOffset="0.00,0.00" convBoundary="-100.10,-0.10,100.10,200.10" origBoundary="10000000000.00,10000000000.00,-10000000000.00,-10000000000.00" projParameter="!"/>

    <edge id=":center_0" function="internal">
        <lane id=":center_0_0" index="0" speed="6.51" length="9.03" shape="-4.80,110.40 -5.15,107.95 -6.20,106.20 -7.95,105.15 -10.40,104.80"/>
    </edge>
    <edge id=":center_1" function="internal">
        <lane id=":center_1_0" index="0" speed="13.89" length="20.80" shape="-4.80,110.40 -4.80,89.60"/>
    </edge>
    <edge id=":center_2" function="internal">
        <lane id=":center_2_0" index="0" speed="9.26" length="19.35" shape="-1.60,110.40 -0.85,105.15 1.40,101.40 5.15,99.15 10.40,98.40"/>
    </edge>
    <edge id=":center_3" function="internal">
        <lane id=":center_3_0" index="0" speed="6.51" length="9.03" shape="10.40,104.80 7.95,105.15 6.20,106.20 5.15,107.95 4.80,110.40"/>
    </edge>
    <edge id=":center_4" function="internal">
        <lane id=":center_4_0" index="0" speed="13.89" length="20.80" shape="10.40,104.80 -10.40,104.80"/>
    </edge>
    <edge id=":center_5" function="internal">
        <lane id=":center_5_0" index="0" speed="9.26" length="19.35" shape="10.40,101.60 5.15,100.85 1.40,98.60 -0.85,94.85 -1.60,89.60"/>
    </edge>
    <edge id=":center_6" function="internal">
        <lane id=":center_6_0" index="0" speed="6.51" length="9.03" shape="4.80,89.60 5.15,92.05 6.20,93.80 7.95,94.85 10.40,95.20"/>
    </edge>
    <edge id=":center_7" function="internal">
        <lane id=":center_7_0" index="0" speed="13.89" length="20.80" shape="4.80,89.60 4.80,110.40"/>
    </edge>
    <edge id=":center_8" function="internal">
        <lane id=":center_8_0" index="0" speed="9.26" length="19.35" shape="1.60,89.60 0.85,94.85 -1.40,98.60 -5.15,100.85 -10.40,101.60"/>
    </edge>
    <edge id=":center_9" function="internal">
        <lane id=":center_9_0" index="0" speed="6.51" length="9.03" shape="-10.40,95.20 -7.95,94.85 -6.20,93.80 -5.15,92.05 -4.80,89.60"/>
    </edge>
    <edge id=":center_10" function="internal">
        <lane id=":center_10_0" index="0" speed="13.89" length="20.80" shape="-10.40,95.20 10.40,95.20"/>
    </edge>
    <edge id=":center_11" function="internal">
        <lane id=":center_11_0" index="0" speed="9.26" length="19.35" shape="-10.40,98.40 -5.15,99.15 -1.40,101.40 0.85,105.15 1.60,110.40"/>
    </edge>

    <edge id="-r_down" from="center" to="down_1" priority="-1" spreadType="center" shape="-3.20,100.00 -3.20,-0.10">
        <lane id="-r_down_0" index="0" speed="13.89" length="89.60" shape="-4.80,89.60 -4.80,-0.00"/>
        <lane id="-r_down_1" index="1" speed="13.89" length="89.60" shape="-1.60,89.60 -1.60,-0.00"/>
    </edge>
    <edge id="-r_left" from="center" to="left_1" priority="-1" spreadType="center" shape="0.00,103.20 -100.10,103.20">
        <lane id="-r_left_0" index="0" speed="13.89" length="89.60" shape="-10.40,104.80 -100.00,104.80"/>
        <lane id="-r_left_1" index="1" speed="13.89" length="89.60" shape="-10.40,101.60 -100.00,101.60"/>
    </edge>
    <edge id="-r_right" from="center" to="right_1" priority="-1" spreadType="center" shape="0.00,96.80 100.10,96.80">
        <lane id="-r_right_0" index="0" speed="13.89" length="89.60" shape="10.40,95.20 100.00,95.20"/>
        <lane id="-r_right_1" index="1" speed="13.89" length="89.60" shape="10.40,98.40 100.00,98.40"/>
    </edge>
    <edge id="-r_up" from="center" to="up_1" priority="-1" spreadType="center" shape="3.20,100.00 3.20,200.10">
        <lane id="-r_up_0" index="0" speed="13.89" length="89.60" shape="4.80,110.40 4.80,200.00"/>
        <lane id="-r_up_1" index="1" speed="13.89" length="89.60" shape="1.60,110.40 1.60,200.00"/>
    </edge>
    <edge id="r_down" from="down_1" to="center" priority="-1" spreadType="center" shape="3.20,-0.10 3.20,100.00">
        <lane id="r_down_0" index="0" speed="13.89" length="89.60" shape="4.80,-0.00 4.80,89.60"/>
        <lane id="r_down_1" index="1" speed="13.89" length="89.60" shape="1.60,-0.00 1.60,89.60"/>
    </edge>
    <edge id="r_left" from="left_1" to="center" priority="-1" spreadType="center" length="90.00" shape="-100.10,96.80 0.00,96.80">
        <lane id="r_left_0" index="0" speed="13.89" length="90.00" shape="-100.00,95.20 -10.40,95.20"/>
        <lane id="r_left_1" index="1" speed="13.89" length="90.00" shape="-100.00,98.40 -10.40,98.40"/>
    </edge>
    <edge id="r_right" from="right_1" to="center" priority="-1" spreadType="center" shape="100.10,103.20 0.00,103.20">
        <lane id="r_right_0" index="0" speed="13.89" length="89.60" shape="100.00,104.80 10.40,104.80"/>
        <lane id="r_right_1" index="1" speed="13.89" length="89.60" shape="100.00,101.60 10.40,101.60"/>
    </edge>
    <edge id="r_up" from="up_1" to="center" priority="-1" spreadType="center" shape="-3.20,200.10 -3.20,100.00">
        <lane id="r_up_0" index="0" speed="13.89" length="89.60" shape="-4.80,200.00 -4.80,110.40"/>
        <lane id="r_up_1" index="1" speed="13.89" length="89.60" shape="-1.60,200.00 -1.60,110.40"/>
    </edge>

    <!-- <tlLogic id="center" type="static" programID="1" offset="0">
        <phase duration="33" state="GGrrrrGGrrrr"/>
        <phase duration="3"  state="yyrrrryyrrrr"/>
        <phase duration="15" state="rrGrrrrrGrrr"/>
        <phase duration="3"  state="rryrrrrryrrr"/>
        <phase duration="33" state="rrrGGrrrrGGr"/>
        <phase duration="3"  state="rrryyrrrryyr"/>
        <phase duration="15" state="rrrrrGrrrrrG"/>
        <phase duration="3"  state="rrrrryrrrrry"/>
    </tlLogic> -->
    <tlLogic id="center" type="static" programID="1" offset="0">
        <phase duration="1000000" state="GGrrrrGGrrrr"/>
        <phase duration="1000000"  state="yyrrrryyrrrr"/>
        <phase duration="1000000" state="rrGrrrrrGrrr"/>
        <phase duration="1000000"  state="rryrrrrryrrr"/>
        <phase duration="1000000" state="rrrGGrrrrGGr"/>
        <phase duration="1000000"  state="rrryyrrrryyr"/>
        <phase duration="1000000" state="rrrrrGrrrrrG"/>
        <phase duration="1000000"  state="rrrrryrrrrry"/>
    </tlLogic>
    <junction id="center" type="traffic_light" x="0.00" y="100.00" incLanes="r_up_0 r_up_1 r_right_0 r_right_1 r_down_0 r_down_1 r_left_0 r_left_1" intLanes=":center_0_0 :center_1_0 :center_2_0 :center_3_0 :center_4_0 :center_5_0 :center_6_0 :center_7_0 :center_8_0 :center_9_0 :center_10_0 :center_11_0" shape="-6.40,110.40 6.40,110.40 6.84,108.18 7.40,107.40 8.18,106.84 9.18,106.51 10.40,106.40 10.40,93.60 8.18,93.16 7.40,92.60 6.84,91.82 6.51,90.82 6.40,89.60 -6.40,89.60 -6.84,91.82 -7.40,92.60 -8.18,93.16 -9.18,93.49 -10.40,93.60 -10.40,106.40 -8.18,106.84 -7.40,107.40 -6.84,108.18 -6.51,109.18">
        <request index="0"  response="000000000000" foes="000000010000" cont="0"/>
        <request index="1"  response="000000000000" foes="111100010000" cont="0"/>
        <request index="2"  response="000010000000" foes="100010110000" cont="0"/>
        <request index="3"  response="000010000000" foes="000010000000" cont="0"/>
        <request index="4"  response="000010000111" foes="100010000111" cont="0"/>
        <request index="5"  response="010110000100" foes="010110000100" cont="0"/>
        <request index="6"  response="000000000000" foes="010000000000" cont="0"/>
        <request index="7"  response="000000000000" foes="010000111100" cont="0"/>
        <request index="8"  response="000000000010" foes="110000100010" cont="0"/>
        <request index="9"  response="000000000010" foes="000000000010" cont="0"/>
        <request index="10" response="000111000010" foes="000111100010" cont="0"/>
        <request index="11" response="000100010110" foes="000100010110" cont="0"/>
    </junction>
    <junction id="down_1" type="dead_end" x="0.00" y="0.00" incLanes="-r_down_0 -r_down_1" intLanes="" shape="-0.00,0.00 -6.40,-0.00 0.00,0.00"/>
    <junction id="left_1" type="dead_end" x="-100.00" y="100.00" incLanes="-r_left_0 -r_left_1" intLanes="" shape="-100.00,100.00 -100.00,106.40 -100.00,100.00"/>
    <junction id="right_1" type="dead_end" x="100.00" y="100.00" incLanes="-r_right_0 -r_right_1" intLanes="" shape="100.00,100.00 100.00,93.60 100.00,100.00"/>
    <junction id="up_1" type="dead_end" x="0.00" y="200.00" incLanes="-r_up_0 -r_up_1" intLanes="" shape="0.00,200.00 6.40,200.00 -0.00,200.00"/>

    <connection from="r_down" to="-r_right" fromLane="0" toLane="0" via=":center_6_0" tl="center" linkIndex="6" dir="r" state="O"/>
    <connection from="r_down" to="-r_up" fromLane="0" toLane="0" via=":center_7_0" tl="center" linkIndex="7" dir="s" state="O"/>
    <connection from="r_down" to="-r_left" fromLane="1" toLane="1" via=":center_8_0" tl="center" linkIndex="8" dir="l" state="o"/>
    <connection from="r_left" to="-r_down" fromLane="0" toLane="0" via=":center_9_0" tl="center" linkIndex="9" dir="r" state="o"/>
    <connection from="r_left" to="-r_right" fromLane="0" toLane="0" via=":center_10_0" tl="center" linkIndex="10" dir="s" state="o"/>
    <connection from="r_left" to="-r_up" fromLane="1" toLane="1" via=":center_11_0" tl="center" linkIndex="11" dir="l" state="o"/>
    <connection from="r_right" to="-r_up" fromLane="0" toLane="0" via=":center_3_0" tl="center" linkIndex="3" dir="r" state="o"/>
    <connection from="r_right" to="-r_left" fromLane="0" toLane="0" via=":center_4_0" tl="center" linkIndex="4" dir="s" state="o"/>
    <connection from="r_right" to="-r_down" fromLane="1" toLane="1" via=":center_5_0" tl="center" linkIndex="5" dir="l" state="o"/>
    <connection from="r_up" to="-r_left" fromLane="0" toLane="0" via=":center_0_0" tl="center" linkIndex="0" dir="r" state="O"/>
    <connection from="r_up" to="-r_down" fromLane="0" toLane="0" via=":center_1_0" tl="center" linkIndex="1" dir="s" state="O"/>
    <connection from="r_up" to="-r_right" fromLane="1" toLane="1" via=":center_2_0" tl="center" linkIndex="2" dir="l" state="o"/>

    <connection from=":center_0" to="-r_left" fromLane="0" toLane="0" dir="r" state="M"/>
    <connection from=":center_1" to="-r_down" fromLane="0" toLane="0" dir="s" state="M"/>
    <connection from=":center_2" to="-r_right" fromLane="0" toLane="1" dir="l" state="M"/>
    <connection from=":center_3" to="-r_up" fromLane="0" toLane="0" dir="r" state="M"/>
    <connection from=":center_4" to="-r_left" fromLane="0" toLane="0" dir="s" state="M"/>
    <connection from=":center_5" to="-r_down" fromLane="0" toLane="1" dir="l" state="M"/>
    <connection from=":center_6" to="-r_right" fromLane="0" toLane="0" dir="r" state="M"/>
    <connection from=":center_7" to="-r_up" fromLane="0" toLane="0" dir="s" state="M"/>
    <connection from=":center_8" to="-r_left" fromLane="0" toLane="1" dir="l" state="M"/>
    <connection from=":center_9" to="-r_down" fromLane="0" toLane="0" dir="r" state="M"/>
    <connection from=":center_10" to="-r_right" fromLane="0" toLane="0" dir="s" state="M"/>
    <connection from=":center_11" to="-r_up" fromLane="0" toLane="1" dir="l" state="M"/>

</net>
