<?xml version="1.0" encoding="UTF-8"?>

<!-- generated on субота, 07. март 2020. 21:06:42 CET by Eclipse SUMO netedit Version 1.5.0
<configuration xmlns:xsi="http://www.w3.org/2001/XMLSchema-instance" xsi:noNamespaceSchemaLocation="http://sumo.dlr.de/xsd/netconvertConfiguration.xsd">

    <input>
        <sumo-net-file value="/home/dunja/Desktop/TrafficLightSystem/cross.net.xml"/>
    </input>

    <output>
        <output-file value="/home/dunja/Desktop/TrafficLightSystem/cross.net.xml"/>
    </output>

    <processing>
        <geometry.min-radius.fix.railways value="false"/>
        <geometry.max-grade.fix value="false"/>
        <offset.disable-normalization value="true"/>
        <lefthand value="false"/>
    </processing>

    <junctions>
        <no-turnarounds value="true"/>
        <junctions.corner-detail value="5"/>
        <junctions.limit-turn-speed value="5.5"/>
        <rectangular-lane-cut value="false"/>
    </junctions>

    <pedestrian>
        <walkingareas value="false"/>
    </pedestrian>

    <netedit>
        <route-files value="/home/dunja/Desktop/TrafficLightSystem/cross.rou.xml"/>
    </netedit>

    <report>
        <aggregate-warnings value="5"/>
    </report>

</configuration>
-->

<routes xmlns:xsi="http://www.w3.org/2001/XMLSchema-instance" xsi:noNamespaceSchemaLocation="http://sumo.dlr.de/xsd/routes_file.xsd">
    <route edges="r_left -r_down" color="yellow" id="route_left_down"/>
    <route edges="r_left -r_right" color="yellow" id="route_left_right"/>
    <route edges="r_left -r_up" color="yellow" id="route_left_up"/>
    <route edges="r_right -r_down" color="green" id="route_right_down"/>
    <route edges="r_right -r_left" color="green" id="route_right_left"/>
    <route edges="r_right -r_up" color="green" id="route_right_up"/>
    <route edges="r_up -r_down" color="blue" id="route_up_down"/>
    <route edges="r_up -r_left" color="blue" id="route_up_left"/>
    <route edges="r_up -r_right" color="blue" id="route_up_right"/>
    <route edges="r_down -r_up" color="red" id="route_down_up"/>
    <route edges="r_down -r_left" color="red" id="route_down_left"/>
    <route edges="r_down -r_right" color="red" id="route_down_right"/>
    <vType id="car1" accel="2.2" decel="4.0" sigma="0.5" length="3.5" maxSpeed="110"/>
    <!-- <vehicle id="vehicle_0" type="car1" depart="0.00" route="route_left_right"/>
    <vehicle id="vehicle_1" type="car1" depart="1.00" route="route_left_right"/>
    <vehicle id="vehicle_2" type="car1" depart="2.00" route="route_up_down"/>
    <vehicle id="vehicle_3" type="car1" depart="3.00" route="route_up_down"/>
    <vehicle id="vehicle_4" type="car1" depart="4.00" route="route_up_down"/> -->

    <flow color="1,1,0" type="car1" begin="0" end= "1000000" probability="0.05" id="flow_00" route="route_up_down"/>
    <flow color="1,1,0" type="car1" begin="0" end= "1000000" probability="0.05" id="flow_09" route="route_right_up"/>
    <flow color="1,1,0" type="car1" begin="0" end= "1000000" probability="0.05" id="flow_03" route="route_down_up"/>
    <flow color="1,1,0" type="car1" begin="0" end= "1000000" probability="0.05" id="flow_06" route="route_left_up"/>
    <flow color="1,1,0" type="car1" begin="4" end= "1000000" probability="0.05" id="flow_01" route="route_up_left"/>
    <flow color="1,1,0" type="car1" begin="4" end= "1000000" probability="0.05" id="flow_07" route="route_left_down"/>
    <flow color="1,1,0" type="car1" begin="4" end= "1000000" probability="0.05" id="flow_04" route="route_down_left"/>
    <flow color="1,1,0" type="car1" begin="4" end= "1000000" probability="0.05" id="flow_11" route="route_right_left"/>
    <flow color="1,1,0" type="car1" begin="8" end= "1000000" probability="0.05" id="flow_02" route="route_up_right"/>
    <flow color="1,1,0" type="car1" begin="8" end= "1000000" probability="0.05" id="flow_05" route="route_down_right"/>
    <flow color="1,1,0" type="car1" begin="8" end= "1000000" probability="0.05" id="flow_08" route="route_left_right"/>
    <flow color="1,1,0" type="car1" begin="8" end= "1000000" probability="0.05" id="flow_10" route="route_right_down"/>
</routes>
